[General]
network = small_network
num-rngs = 1
seed-set = ${20030}
debug-on-errors = true
sim-time-limit = 6001s

*.alpha = 0.5
*.availableJobNum = 5
*.nodeNum = 10
